/*--------------------------------*- C++ -*----------------------------------*\
| =========                 |                                                 |
| \\      /  F ield         | OpenFOAM: The Open Source CFD Toolbox           |
|  \\    /   O peration     | Version:  2512                                  |
|   \\  /    A nd           | Website:  www.openfoam.com                      |
|    \\/     M anipulation  |                                                 |
\*---------------------------------------------------------------------------*/
FoamFile
{
    version     2.0;
    format      binary;
    arch        "LSB;label=32;scalar=64";
    class       polyBoundaryMesh;
    location    "constant/polyMesh";
    object      boundary;
}
// * * * * * * * * * * * * * * * * * * * * * * * * * * * * * * * * * * * * * //

5
(
    inlet
    {
        type            patch;
        nFaces          9800;
        startFace       4172472;
    }
    outlet_faces
    {
        type            patch;
        nFaces          49000;
        startFace       4182272;
    }
    mirror
    {
        type            symmetryPlane;
        inGroups        1(symmetryPlane);
        nFaces          19600;
        startFace       4231272;
    }
    overset_patch
    {
        type            overset;
        inGroups        1(overset);
        nFaces          4065;
        startFace       4250872;
    }
    wing
    {
        type            wall;
        inGroups        1(wall);
        nFaces          1214;
        startFace       4254937;
    }
)

// ************************************************************************* //
