/*--------------------------------*- C++ -*----------------------------------*\
| =========                 |                                                 |
| \\      /  F ield         | OpenFOAM: The Open Source CFD Toolbox           |
|  \\    /   O peration     | Version:  2512                                  |
|   \\  /    A nd           | Website:  www.openfoam.com                      |
|    \\/     M anipulation  |                                                 |
\*---------------------------------------------------------------------------*/
FoamFile
{
    version     2.0;
    format      binary;
    arch        "LSB;label=32;scalar=64";
    class       polyBoundaryMesh;
    location    "constant/polyMesh";
    object      boundary;
}
// * * * * * * * * * * * * * * * * * * * * * * * * * * * * * * * * * * * * * //

5
(
    inlet
    {
        type            patch;
        nFaces          5000;
        startFace       4325388;
    }
    outlet_faces
    {
        type            patch;
        nFaces          25000;
        startFace       4330388;
    }
    mirror
    {
        type            symmetryPlane;
        inGroups        1(symmetryPlane);
        nFaces          10000;
        startFace       4355388;
    }
    overset_patch
    {
        type            overset;
        inGroups        1(overset);
        nFaces          16128;
        startFace       4365388;
    }
    wing
    {
        type            wall;
        inGroups        1(wall);
        nFaces          6220;
        startFace       4381516;
    }
)

// ************************************************************************* //
