/*--------------------------------*- C++ -*----------------------------------*\
| =========                 |                                                 |
| \\      /  F ield         | OpenFOAM: The Open Source CFD Toolbox           |
|  \\    /   O peration     | Version:  2512                                  |
|   \\  /    A nd           | Website:  www.openfoam.com                      |
|    \\/     M anipulation  |                                                 |
\*---------------------------------------------------------------------------*/
FoamFile
{
    version     2.0;
    format      binary;
    arch        "LSB;label=32;scalar=64";
    class       polyBoundaryMesh;
    location    "constant/polyMesh";
    object      boundary;
}
// * * * * * * * * * * * * * * * * * * * * * * * * * * * * * * * * * * * * * //

1
(
    overset_patch
    {
        type            overset;
        nFaces          64512;
        startFace       2621952;
        faces           ( ( 0 1 2 3 ) ( 4 5 6 7 ) ( 0 1 5 4 ) ( 1 2 6 5 ) ( 0 4 7 3 ) ( 3 2 6 7 ) );
    }
)

// ************************************************************************* //
