/*--------------------------------*- C++ -*----------------------------------*\
| =========                 |                                                 |
| \\      /  F ield         | OpenFOAM: The Open Source CFD Toolbox           |
|  \\    /   O peration     | Version:  v2512                                 |
|   \\  /    A nd           | Website:  www.openfoam.com                      |
|    \\/     M anipulation  |                                                 |
\*---------------------------------------------------------------------------*/
FoamFile
{
    version     2.0;
    format      ascii;
    class       dictionary;
    object      dynamicMeshDict;
}
// * * * * * * * * * * * * * * * * * * * * * * * * * * * * * * * * * * * * * //

dynamicFvMesh   dynamicOversetFvMesh;

solver          multiSolidBodyMotionSolver;

multiSolidBodyMotionSolverCoeffs
{
    wingZone
    {
        solidBodyMotionFunction oscillatingRotatingMotion;
        oscillatingRotatingMotionCoeffs
        {
            origin      (0 0 0);
            amplitude   (0 0 45);
            omega       315;
        }
    }
}



// motionSolver    solidBody;

// // Table rotating in z axis
// wingZone
// {
//     solidBodyMotionFunction oscillatingRotatingMotion;
//     oscillatingRotatingMotionCoeffs
//     {
//         origin          (0 0 0);
//         axis            (0 0 1);
//         omega           6.2832; // rad/s
//     }
// }

//// Box rotates on rotating table
//rotatingBox
//{
//    solidBodyMotionFunction rotatingMotion;
//    rotatingMotionCoeffs
//    {
//        origin          (0 0 0);
//        axis            (1 0 0);
//        omega           12.5664; // rad/s
//    }
//}

// Tube rocking on rotating table
// rotatingBox
// {
//     solidBodyMotionFunction oscillatingRotatingMotion;
//     oscillatingRotatingMotionCoeffs
//     {
//         origin          (0 0 0);
//         omega           40;         // rad/s
//         amplitude       (45 0 0);   // 45 degrees max tilt
//     }
// }


// ************************************************************************* //
