FoamFile
{
    format      ascii;
    class       dictionary;
    object      snappyHexMeshDict;
}
// * * * * * * * * * * * * * * * * * * * * * * * * * * * * * * * * * * * * * //

// Which of the steps to run
castellatedMesh true;
snap            true;
addLayers       false;


geometry
{
    refinementBox
    {
        type box;
        min (-0.1 -0.3 -0.3);
        max (0.5 0.3 0.3);
    }
}

castellatedMeshControls
{
    
    maxLocalCells 100000;

    
    maxGlobalCells 7000000;

    
    minRefinementCells 10;

    
    maxLoadUnbalance 0.10;


   
    nCellsBetweenLevels 3;

    resolveFeatureAngle 30;

    refinementSurfaces
    {

    }

    refinementRegions
    {
        refinementBox
        {
            mode    inside;
            levels   2;
        }
    }
    insidePoint (0.1 0.5 0);

    allowFreeStandingZoneFaces false;
}

snapControls
{
    
    nSmoothPatch 3;

    
    
    tolerance 4.0;

    
    nSolveIter 30;

    
    nRelaxIter 5;
}


meshQualityControls
{
    //- Maximum non-orthogonality allowed. Set to 180 to disable.
    maxNonOrtho 65;

    //- Max skewness allowed. Set to <0 to disable.
    maxBoundarySkewness 20;
    maxInternalSkewness 4;

    //- Max concaveness allowed. Is angle (in degrees) below which concavity
    //  is allowed. 0 is straight face, <0 would be convex face.
    //  Set to 180 to disable.
    maxConcave 80;

    //- Minimum projected area v.s. actual area. Set to -1 to disable.
    minFlatness 0.5;

    //- Minimum cell pyramid volume relative to min bounding box length^3
    //  Set to a fraction of the smallest cell volume expected.
    //  Set to very negative number (e.g. -1e30) to disable.
    minVol -1e30;

    minTetQuality 1e-30;

    //- Minimum face twist. Set to <-1 to disable. dot product of face normal
    //  and face centre triangles normal
    minTwist 0.02;

    //- Minimum normalised cell determinant
    //  1 = hex, <= 0 = folded or flattened illegal cell
    minDeterminant 0.001;

    //- minFaceWeight (0 -> 0.5)
    minFaceWeight 0.02;

    //- minVolRatio (0 -> 1)
    minVolRatio 0.01;

    // Advanced

    //- Number of error distribution iterations
    nSmoothScale 4;
    //- Amount to scale back displacement at error points
    errorReduction 0.75;
}

addLayersControls {

}

mergeTolerance 1e-6;